<?xml version="1.0" encoding="UTF-8"?>

<!-- generated on 2023-12-12 15:52:33 by Eclipse SUMO netedit Version 1.19.0
<configuration xmlns:xsi="http://www.w3.org/2001/XMLSchema-instance" xsi:noNamespaceSchemaLocation="http://sumo.dlr.de/xsd/neteditConfiguration.xsd">

    <input>
        <sumo-net-file value="D:\sumo-1.19.0\test\mynet.net.xml"/>
    </input>

    <output>
        <output-file value="D:\sumo-1.19.0\test\mynet.net.xml"/>
    </output>

    <processing>
        <geometry.min-radius.fix.railways value="false"/>
        <geometry.max-grade.fix value="false"/>
        <offset.disable-normalization value="true"/>
        <lefthand value="0"/>
    </processing>

    <junctions>
        <no-turnarounds value="true"/>
        <junctions.corner-detail value="5"/>
        <junctions.limit-turn-speed value="5.50"/>
        <rectangular-lane-cut value="0"/>
    </junctions>

    <pedestrian>
        <walkingareas value="0"/>
    </pedestrian>

</configuration>
-->

<net version="1.16" junctionCornerDetail="5" limitTurnSpeed="5.50" xmlns:xsi="http://www.w3.org/2001/XMLSchema-instance" xsi:noNamespaceSchemaLocation="http://sumo.dlr.de/xsd/net_file.xsd">

    <location netOffset="0.00,0.00" convBoundary="0.00,-40.00,500.00,0.00" origBoundary="-10000000000.00,-10000000000.00,10000000000.00,10000000000.00" projParameter="!"/>

    <edge id=":J7_0" function="internal">
        <lane id=":J7_0_0" index="0" speed="10.58" length="8.07" shape="87.83,-11.79 89.62,-10.17 90.91,-8.98 92.35,-8.25 94.62,-8.00"/>
    </edge>
    <edge id=":J7_1" function="internal">
        <lane id=":J7_1_0" index="0" speed="13.89" length="8.12" shape="86.50,-8.00 94.62,-8.00"/>
        <lane id=":J7_1_1" index="1" speed="13.89" length="8.12" shape="86.50,-4.80 94.62,-4.80"/>
        <lane id=":J7_1_2" index="2" speed="13.89" length="8.12" shape="86.50,-1.60 94.62,-1.60"/>
    </edge>

    <edge id="E2" from="J6" to="J7" priority="-1">
        <lane id="E2_0" index="0" speed="13.89" length="86.50" shape="0.00,-8.00 86.50,-8.00"/>
        <lane id="E2_1" index="1" speed="13.89" length="86.50" shape="0.00,-4.80 86.50,-4.80"/>
        <lane id="E2_2" index="2" speed="13.89" length="86.50" shape="0.00,-1.60 86.50,-1.60"/>
    </edge>
    <edge id="E4" from="J7" to="J9" priority="-1">
        <lane id="E4_0" index="0" speed="13.89" length="405.38" shape="94.62,-8.00 500.00,-8.00"/>
        <lane id="E4_1" index="1" speed="13.89" length="405.38" shape="94.62,-4.80 500.00,-4.80"/>
        <lane id="E4_2" index="2" speed="13.89" length="405.38" shape="94.62,-1.60 500.00,-1.60"/>
    </edge>
    <edge id="branch" from="J8" to="J7" priority="-1">
        <lane id="branch_0" index="0" speed="13.89" length="47.16" shape="51.00,-41.25 87.83,-11.79"/>
    </edge>

    <junction id="J6" type="dead_end" x="0.00" y="0.00" incLanes="" intLanes="" shape="0.00,0.00 0.00,-9.60"/>
    <junction id="J7" type="priority" x="100.00" y="0.00" incLanes="branch_0 E2_0 E2_1 E2_2" intLanes=":J7_0_0 :J7_1_0 :J7_1_1 :J7_1_2" shape="94.62,0.00 94.62,-9.60 92.21,-10.02 91.45,-10.53 90.75,-11.21 89.94,-12.05 88.83,-13.04 86.83,-10.54 87.31,-10.02 87.33,-9.83 87.20,-9.70 86.93,-9.63 86.50,-9.60 86.50,0.00">
        <request index="0" response="1110" foes="1110" cont="0"/>
        <request index="1" response="0000" foes="0001" cont="0"/>
        <request index="2" response="0000" foes="0001" cont="0"/>
        <request index="3" response="0000" foes="0001" cont="0"/>
    </junction>
    <junction id="J8" type="dead_end" x="50.00" y="-40.00" incLanes="" intLanes="" shape="50.00,-40.00 52.00,-42.50"/>
    <junction id="J9" type="dead_end" x="500.00" y="0.00" incLanes="E4_0 E4_1 E4_2" intLanes="" shape="500.00,-9.60 500.00,0.00"/>

    <connection from="E2" to="E4" fromLane="0" toLane="0" via=":J7_1_0" dir="s" state="M"/>
    <connection from="E2" to="E4" fromLane="1" toLane="1" via=":J7_1_1" dir="s" state="M"/>
    <connection from="E2" to="E4" fromLane="2" toLane="2" via=":J7_1_2" dir="s" state="M"/>
    <connection from="branch" to="E4" fromLane="0" toLane="0" via=":J7_0_0" dir="s" state="m"/>

    <connection from=":J7_0" to="E4" fromLane="0" toLane="0" dir="s" state="M"/>
    <connection from=":J7_1" to="E4" fromLane="0" toLane="0" dir="s" state="M"/>
    <connection from=":J7_1" to="E4" fromLane="1" toLane="1" dir="s" state="M"/>
    <connection from=":J7_1" to="E4" fromLane="2" toLane="2" dir="s" state="M"/>

</net>
